extensions/iidm/resources/voltageRegulationCompatibility-1.1.xml
<?xml version="1.0" encoding="UTF-8"?>
<iidm:network xmlns:iidm="http://www.powsybl.org/schema/iidm/1_12" xmlns:vr="http://www.powsybl.org/schema/iidm/ext/voltage_regulation/1_1" id="fictitious" caseDate="2017-06-25T17:43:00+01:00" forecastDistance="0" sourceFormat="test" minimumValidationLevel="STEADY_STATE_HYPOTHESIS">
    <iidm:substation id="P1" country="FR" tso="R" geographicalTags="A">
        <iidm:voltageLevel id="VLGEN" nominalV="400" topologyKind="BUS_BREAKER">
            <iidm:busBreakerTopology>
                <iidm:bus id="NGEN"/>
            </iidm:busBreakerTopology>
            <iidm:generator id="GEN" energySource="OTHER" minP="-9999.9899999999998" maxP="9999.9899999999998" voltageRegulatorOn="true" targetP="607" targetV="24.5" targetQ="301" bus="NGEN" connectableBus="NGEN" p="-605" q="-225">
                <iidm:minMaxReactiveLimits minQ="-9999.9899999999998" maxQ="9999.9899999999998"/>
            </iidm:generator>
        </iidm:voltageLevel>
    </iidm:substation>
    <iidm:substation id="P2" country="FR" tso="R" geographicalTags="B">
        <iidm:voltageLevel id="VLBAT" nominalV="400" topologyKind="BUS_BREAKER">
            <iidm:busBreakerTopology>
                <iidm:bus id="NBAT"/>
            </iidm:busBreakerTopology>
            <iidm:battery id="BAT" targetP="9999.9899999999998" targetQ="9999.9899999999998" minP="-9999.9899999999998" maxP="9999.9899999999998" bus="NBAT" connectableBus="NBAT" p="-605" q="-225">
                <iidm:minMaxReactiveLimits minQ="-9999.9899999999998" maxQ="9999.9899999999998"/>
            </iidm:battery>
            <iidm:battery id="BAT2" targetP="100" targetQ="200" minP="-200" maxP="200" bus="NBAT" connectableBus="NBAT" p="-605" q="-225">
                <iidm:reactiveCapabilityCurve>
                    <iidm:point p="0" minQ="-59.299999999999997" maxQ="60"/>
                    <iidm:point p="70" minQ="-54.549999999999997" maxQ="46.25"/>
                </iidm:reactiveCapabilityCurve>
            </iidm:battery>
            <iidm:load id="LOAD" loadType="UNDEFINED" p0="600" q0="200" bus="NBAT" connectableBus="NBAT"/>
        </iidm:voltageLevel>
    </iidm:substation>
    <iidm:line id="NHV1_NHV2_1" r="3" x="33" g1="0" b1="0.000193" g2="0" b2="0.000193" bus1="NGEN" connectableBus1="NGEN" voltageLevelId1="VLGEN" bus2="NBAT" connectableBus2="NBAT" voltageLevelId2="VLBAT"/>
    <iidm:line id="NHV1_NHV2_2" r="3" x="33" g1="0" b1="0.000193" g2="0" b2="0.000193" bus1="NGEN" connectableBus1="NGEN" voltageLevelId1="VLGEN" bus2="NBAT" connectableBus2="NBAT" voltageLevelId2="VLBAT"/>
    <iidm:extension id="BAT">
        <vr:voltageRegulation voltageRegulatorOn="true" targetV="100"/>
    </iidm:extension>
    <iidm:extension id="BAT2">
        <vr:voltageRegulation voltageRegulatorOn="true" targetV="100">
            <vr:terminalRef id="GEN"/>
        </vr:voltageRegulation>
    </iidm:extension>
</iidm:network>
